
/*--------------------------------*- C++ -*----------------------------------*/

// File was generated by SwiftBlock, a Blender 3D addon.

FoamFile
{
    version     2.0;
    format      ascii;
    class       dictionary;
    object      blockMeshDict;
}
// * * * * * * * * * * * * * * * * * * * * * * * * * * * * * * * * * * * * * //

deltaT          1;

writeInterval   1;



// ************************************************************************* //


geometry
{
}
vertices
(
    (0.002499246969819069 -6.135307194199413e-05 0.0)
    (0.002499246969819069 6.135307194199413e-05 0.0)
    (0.10001621395349503 -0.0024552601389586926 0.0)
    (0.10001621395349503 0.0024552601389586926 0.0)
    (0.17292964458465576 -0.004245184361934662 0.0)
    (0.17292964458465576 0.004245184361934662 0.0)
    (0.21646343171596527 -0.005313878878951073 0.0)
    (0.21646343171596527 0.005313878878951073 0.0)
    (0.2390529215335846 -0.005868419539183378 0.0)
    (0.2390529215335846 0.005868419539183378 0.0)
    (0.2499247044324875 -0.006135307252407074 0.0)
    (0.2499247044324875 0.006135307252407074 0.0)
    (0.2508176565170288 -0.0061572277918457985 0.0)
    (0.2508176565170288 0.0061572277918457985 0.0)
    (0.2521210312843323 -0.0061892238445580006 0.0)
    (0.2521210312843323 0.0061892238445580006 0.0)
    (0.2540040612220764 -0.0062354495748877525 0.0)
    (0.2540040612220764 0.0062354495748877525 0.0)
    (0.2566845715045929 -0.006301252171397209 0.0)
    (0.2566845715045929 0.006301252171397209 0.0)
    (0.26042088866233826 -0.006392974406480789 0.0)
    (0.26042088866233826 0.006392974406480789 0.0)
    (0.26547926664352417 -0.0065171499736607075 0.0)
    (0.26547926664352417 0.0065171499736607075 0.0)
    (0.27206355333328247 -0.006678785663098097 0.0)
    (0.27206355333328247 0.006678785663098097 0.0)
    (0.2802092432975769 -0.006878750864416361 0.0)
    (0.2802092432975769 0.006878750864416361 0.0)
    (0.2896757125854492 -0.0071111395955085754 0.0)
    (0.2896757125854492 0.0071111395955085754 0.0)
    (0.29990965127944946 -0.007362368516623974 0.0)
    (0.29990965127944946 0.007362368516623974 0.0)
    (0.002499246969819069 -6.135307194199413e-05 0.00161616166587919)
    (0.002499246969819069 6.135307194199413e-05 0.00161616166587919)
    (0.10001621395349503 -0.0024552601389586926 0.00161616166587919)
    (0.10001621395349503 0.0024552601389586926 0.00161616166587919)
    (0.17292964458465576 -0.004245184361934662 0.00161616166587919)
    (0.17292964458465576 0.004245184361934662 0.00161616166587919)
    (0.21646343171596527 -0.005313878878951073 0.00161616166587919)
    (0.21646343171596527 0.005313878878951073 0.00161616166587919)
    (0.2390529215335846 -0.005868419539183378 0.00161616166587919)
    (0.2390529215335846 0.005868419539183378 0.00161616166587919)
    (0.2499247044324875 -0.006135307252407074 0.00161616166587919)
    (0.2499247044324875 0.006135307252407074 0.00161616166587919)
    (0.2508176565170288 -0.0061572277918457985 0.00161616166587919)
    (0.2508176565170288 0.0061572277918457985 0.00161616166587919)
    (0.2521210312843323 -0.0061892238445580006 0.00161616166587919)
    (0.2521210312843323 0.0061892238445580006 0.00161616166587919)
    (0.2540040612220764 -0.0062354495748877525 0.00161616166587919)
    (0.2540040612220764 0.0062354495748877525 0.00161616166587919)
    (0.2566845715045929 -0.006301252171397209 0.00161616166587919)
    (0.2566845715045929 0.006301252171397209 0.00161616166587919)
    (0.26042088866233826 -0.006392974406480789 0.00161616166587919)
    (0.26042088866233826 0.006392974406480789 0.00161616166587919)
    (0.26547926664352417 -0.0065171499736607075 0.00161616166587919)
    (0.26547926664352417 0.0065171499736607075 0.00161616166587919)
    (0.27206355333328247 -0.006678785663098097 0.00161616166587919)
    (0.27206355333328247 0.006678785663098097 0.00161616166587919)
    (0.2802092432975769 -0.006878750864416361 0.00161616166587919)
    (0.2802092432975769 0.006878750864416361 0.00161616166587919)
    (0.2896757125854492 -0.0071111395955085754 0.00161616166587919)
    (0.2896757125854492 0.0071111395955085754 0.00161616166587919)
    (0.29990965127944946 -0.007362368516623974 0.00161616166587919)
    (0.29990965127944946 0.007362368516623974 0.00161616166587919)
    (0.002499246969819069 -6.135307194199413e-05 0.003572836983948946)
    (0.002499246969819069 6.135307194199413e-05 0.003572836983948946)
    (0.10001621395349503 -0.0024552601389586926 0.003572836983948946)
    (0.10001621395349503 0.0024552601389586926 0.003572836983948946)
    (0.17292964458465576 -0.004245184361934662 0.003572836983948946)
    (0.17292964458465576 0.004245184361934662 0.003572836983948946)
    (0.21646343171596527 -0.005313878878951073 0.003572836983948946)
    (0.21646343171596527 0.005313878878951073 0.003572836983948946)
    (0.2390529215335846 -0.005868419539183378 0.003572836983948946)
    (0.2390529215335846 0.005868419539183378 0.003572836983948946)
    (0.2499247044324875 -0.006135307252407074 0.003572836983948946)
    (0.2499247044324875 0.006135307252407074 0.003572836983948946)
    (0.2508176565170288 -0.0061572277918457985 0.003572836983948946)
    (0.2508176565170288 0.0061572277918457985 0.003572836983948946)
    (0.2521210312843323 -0.0061892238445580006 0.003572836983948946)
    (0.2521210312843323 0.0061892238445580006 0.003572836983948946)
    (0.2540040612220764 -0.0062354495748877525 0.003572836983948946)
    (0.2540040612220764 0.0062354495748877525 0.003572836983948946)
    (0.2566845715045929 -0.006301252171397209 0.003572836983948946)
    (0.2566845715045929 0.006301252171397209 0.003572836983948946)
    (0.26042088866233826 -0.006392974406480789 0.003572836983948946)
    (0.26042088866233826 0.006392974406480789 0.003572836983948946)
    (0.26547926664352417 -0.0065171499736607075 0.003572836983948946)
    (0.26547926664352417 0.0065171499736607075 0.003572836983948946)
    (0.27206355333328247 -0.006678785663098097 0.003572836983948946)
    (0.27206355333328247 0.006678785663098097 0.003572836983948946)
    (0.2802092432975769 -0.006878750864416361 0.003572836983948946)
    (0.2802092432975769 0.006878750864416361 0.003572836983948946)
    (0.2896757125854492 -0.0071111395955085754 0.003572836983948946)
    (0.2896757125854492 0.0071111395955085754 0.003572836983948946)
    (0.29990965127944946 -0.007362368516623974 0.003572836983948946)
    (0.29990965127944946 0.007362368516623974 0.003572836983948946)
    (0.002499246969819069 -6.135307194199413e-05 0.005937280133366585)
    (0.002499246969819069 6.135307194199413e-05 0.005937280133366585)
    (0.10001621395349503 -0.0024552601389586926 0.005937280133366585)
    (0.10001621395349503 0.0024552601389586926 0.005937280133366585)
    (0.17292964458465576 -0.004245184361934662 0.005937280133366585)
    (0.17292964458465576 0.004245184361934662 0.005937280133366585)
    (0.21646343171596527 -0.005313878878951073 0.005937280133366585)
    (0.21646343171596527 0.005313878878951073 0.005937280133366585)
    (0.2390529215335846 -0.005868419539183378 0.005937280133366585)
    (0.2390529215335846 0.005868419539183378 0.005937280133366585)
    (0.2499247044324875 -0.006135307252407074 0.005937280133366585)
    (0.2499247044324875 0.006135307252407074 0.005937280133366585)
    (0.2508176565170288 -0.0061572277918457985 0.005937280133366585)
    (0.2508176565170288 0.0061572277918457985 0.005937280133366585)
    (0.2521210312843323 -0.0061892238445580006 0.005937280133366585)
    (0.2521210312843323 0.0061892238445580006 0.005937280133366585)
    (0.2540040612220764 -0.0062354495748877525 0.005937280133366585)
    (0.2540040612220764 0.0062354495748877525 0.005937280133366585)
    (0.2566845715045929 -0.006301252171397209 0.005937280133366585)
    (0.2566845715045929 0.006301252171397209 0.005937280133366585)
    (0.26042088866233826 -0.006392974406480789 0.005937280133366585)
    (0.26042088866233826 0.006392974406480789 0.005937280133366585)
    (0.26547926664352417 -0.0065171499736607075 0.005937280133366585)
    (0.26547926664352417 0.0065171499736607075 0.005937280133366585)
    (0.27206355333328247 -0.006678785663098097 0.005937280133366585)
    (0.27206355333328247 0.006678785663098097 0.005937280133366585)
    (0.2802092432975769 -0.006878750864416361 0.005937280133366585)
    (0.2802092432975769 0.006878750864416361 0.005937280133366585)
    (0.2896757125854492 -0.0071111395955085754 0.005937280133366585)
    (0.2896757125854492 0.0071111395955085754 0.005937280133366585)
    (0.29990965127944946 -0.007362368516623974 0.005937280133366585)
    (0.29990965127944946 0.007362368516623974 0.005937280133366585)
    (0.002499246969819069 -6.135307194199413e-05 0.008787928149104118)
    (0.002499246969819069 6.135307194199413e-05 0.008787928149104118)
    (0.10001621395349503 -0.0024552601389586926 0.008787928149104118)
    (0.10001621395349503 0.0024552601389586926 0.008787928149104118)
    (0.17292964458465576 -0.004245184361934662 0.008787928149104118)
    (0.17292964458465576 0.004245184361934662 0.008787928149104118)
    (0.21646343171596527 -0.005313878878951073 0.008787928149104118)
    (0.21646343171596527 0.005313878878951073 0.008787928149104118)
    (0.2390529215335846 -0.005868419539183378 0.008787928149104118)
    (0.2390529215335846 0.005868419539183378 0.008787928149104118)
    (0.2499247044324875 -0.006135307252407074 0.008787928149104118)
    (0.2499247044324875 0.006135307252407074 0.008787928149104118)
    (0.2508176565170288 -0.0061572277918457985 0.008787928149104118)
    (0.2508176565170288 0.0061572277918457985 0.008787928149104118)
    (0.2521210312843323 -0.0061892238445580006 0.008787928149104118)
    (0.2521210312843323 0.0061892238445580006 0.008787928149104118)
    (0.2540040612220764 -0.0062354495748877525 0.008787928149104118)
    (0.2540040612220764 0.0062354495748877525 0.008787928149104118)
    (0.2566845715045929 -0.006301252171397209 0.008787928149104118)
    (0.2566845715045929 0.006301252171397209 0.008787928149104118)
    (0.26042088866233826 -0.006392974406480789 0.008787928149104118)
    (0.26042088866233826 0.006392974406480789 0.008787928149104118)
    (0.26547926664352417 -0.0065171499736607075 0.008787928149104118)
    (0.26547926664352417 0.0065171499736607075 0.008787928149104118)
    (0.27206355333328247 -0.006678785663098097 0.008787928149104118)
    (0.27206355333328247 0.006678785663098097 0.008787928149104118)
    (0.2802092432975769 -0.006878750864416361 0.008787928149104118)
    (0.2802092432975769 0.006878750864416361 0.008787928149104118)
    (0.2896757125854492 -0.0071111395955085754 0.008787928149104118)
    (0.2896757125854492 0.0071111395955085754 0.008787928149104118)
    (0.29990965127944946 -0.007362368516623974 0.008787928149104118)
    (0.29990965127944946 0.007362368516623974 0.008787928149104118)
    (0.002499246969819069 -6.135307194199413e-05 0.01221527811139822)
    (0.002499246969819069 6.135307194199413e-05 0.01221527811139822)
    (0.10001621395349503 -0.0024552601389586926 0.01221527811139822)
    (0.10001621395349503 0.0024552601389586926 0.01221527811139822)
    (0.17292964458465576 -0.004245184361934662 0.01221527811139822)
    (0.17292964458465576 0.004245184361934662 0.01221527811139822)
    (0.21646343171596527 -0.005313878878951073 0.01221527811139822)
    (0.21646343171596527 0.005313878878951073 0.01221527811139822)
    (0.2390529215335846 -0.005868419539183378 0.01221527811139822)
    (0.2390529215335846 0.005868419539183378 0.01221527811139822)
    (0.2499247044324875 -0.006135307252407074 0.01221527811139822)
    (0.2499247044324875 0.006135307252407074 0.01221527811139822)
    (0.2508176565170288 -0.0061572277918457985 0.01221527811139822)
    (0.2508176565170288 0.0061572277918457985 0.01221527811139822)
    (0.2521210312843323 -0.0061892238445580006 0.01221527811139822)
    (0.2521210312843323 0.0061892238445580006 0.01221527811139822)
    (0.2540040612220764 -0.0062354495748877525 0.01221527811139822)
    (0.2540040612220764 0.0062354495748877525 0.01221527811139822)
    (0.2566845715045929 -0.006301252171397209 0.01221527811139822)
    (0.2566845715045929 0.006301252171397209 0.01221527811139822)
    (0.26042088866233826 -0.006392974406480789 0.01221527811139822)
    (0.26042088866233826 0.006392974406480789 0.01221527811139822)
    (0.26547926664352417 -0.0065171499736607075 0.01221527811139822)
    (0.26547926664352417 0.0065171499736607075 0.01221527811139822)
    (0.27206355333328247 -0.006678785663098097 0.01221527811139822)
    (0.27206355333328247 0.006678785663098097 0.01221527811139822)
    (0.2802092432975769 -0.006878750864416361 0.01221527811139822)
    (0.2802092432975769 0.006878750864416361 0.01221527811139822)
    (0.2896757125854492 -0.0071111395955085754 0.01221527811139822)
    (0.2896757125854492 0.0071111395955085754 0.01221527811139822)
    (0.29990965127944946 -0.007362368516623974 0.01221527811139822)
    (0.29990965127944946 0.007362368516623974 0.01221527811139822)
    (0.002499246969819069 -6.135307194199413e-05 0.016322340816259384)
    (0.002499246969819069 6.135307194199413e-05 0.016322340816259384)
    (0.10001621395349503 -0.0024552601389586926 0.016322340816259384)
    (0.10001621395349503 0.0024552601389586926 0.016322340816259384)
    (0.17292964458465576 -0.004245184361934662 0.016322340816259384)
    (0.17292964458465576 0.004245184361934662 0.016322340816259384)
    (0.21646343171596527 -0.005313878878951073 0.016322340816259384)
    (0.21646343171596527 0.005313878878951073 0.016322340816259384)
    (0.2390529215335846 -0.005868419539183378 0.016322340816259384)
    (0.2390529215335846 0.005868419539183378 0.016322340816259384)
    (0.2499247044324875 -0.006135307252407074 0.016322340816259384)
    (0.2499247044324875 0.006135307252407074 0.016322340816259384)
    (0.2508176565170288 -0.0061572277918457985 0.016322340816259384)
    (0.2508176565170288 0.0061572277918457985 0.016322340816259384)
    (0.2521210312843323 -0.0061892238445580006 0.016322340816259384)
    (0.2521210312843323 0.0061892238445580006 0.016322340816259384)
    (0.2540040612220764 -0.0062354495748877525 0.016322340816259384)
    (0.2540040612220764 0.0062354495748877525 0.016322340816259384)
    (0.2566845715045929 -0.006301252171397209 0.016322340816259384)
    (0.2566845715045929 0.006301252171397209 0.016322340816259384)
    (0.26042088866233826 -0.006392974406480789 0.016322340816259384)
    (0.26042088866233826 0.006392974406480789 0.016322340816259384)
    (0.26547926664352417 -0.0065171499736607075 0.016322340816259384)
    (0.26547926664352417 0.0065171499736607075 0.016322340816259384)
    (0.27206355333328247 -0.006678785663098097 0.016322340816259384)
    (0.27206355333328247 0.006678785663098097 0.016322340816259384)
    (0.2802092432975769 -0.006878750864416361 0.016322340816259384)
    (0.2802092432975769 0.006878750864416361 0.016322340816259384)
    (0.2896757125854492 -0.0071111395955085754 0.016322340816259384)
    (0.2896757125854492 0.0071111395955085754 0.016322340816259384)
    (0.29990965127944946 -0.007362368516623974 0.016322340816259384)
    (0.29990965127944946 0.007362368516623974 0.016322340816259384)
    (0.002499246969819069 -6.135307194199413e-05 0.021224375814199448)
    (0.002499246969819069 6.135307194199413e-05 0.021224375814199448)
    (0.10001621395349503 -0.0024552601389586926 0.021224375814199448)
    (0.10001621395349503 0.0024552601389586926 0.021224375814199448)
    (0.17292964458465576 -0.004245184361934662 0.021224375814199448)
    (0.17292964458465576 0.004245184361934662 0.021224375814199448)
    (0.21646343171596527 -0.005313878878951073 0.021224375814199448)
    (0.21646343171596527 0.005313878878951073 0.021224375814199448)
    (0.2390529215335846 -0.005868419539183378 0.021224375814199448)
    (0.2390529215335846 0.005868419539183378 0.021224375814199448)
    (0.2499247044324875 -0.006135307252407074 0.021224375814199448)
    (0.2499247044324875 0.006135307252407074 0.021224375814199448)
    (0.2508176565170288 -0.0061572277918457985 0.021224375814199448)
    (0.2508176565170288 0.0061572277918457985 0.021224375814199448)
    (0.2521210312843323 -0.0061892238445580006 0.021224375814199448)
    (0.2521210312843323 0.0061892238445580006 0.021224375814199448)
    (0.2540040612220764 -0.0062354495748877525 0.021224375814199448)
    (0.2540040612220764 0.0062354495748877525 0.021224375814199448)
    (0.2566845715045929 -0.006301252171397209 0.021224375814199448)
    (0.2566845715045929 0.006301252171397209 0.021224375814199448)
    (0.26042088866233826 -0.006392974406480789 0.021224375814199448)
    (0.26042088866233826 0.006392974406480789 0.021224375814199448)
    (0.26547926664352417 -0.0065171499736607075 0.021224375814199448)
    (0.26547926664352417 0.0065171499736607075 0.021224375814199448)
    (0.27206355333328247 -0.006678785663098097 0.021224375814199448)
    (0.27206355333328247 0.006678785663098097 0.021224375814199448)
    (0.2802092432975769 -0.006878750864416361 0.021224375814199448)
    (0.2802092432975769 0.006878750864416361 0.021224375814199448)
    (0.2896757125854492 -0.0071111395955085754 0.021224375814199448)
    (0.2896757125854492 0.0071111395955085754 0.021224375814199448)
    (0.29990965127944946 -0.007362368516623974 0.021224375814199448)
    (0.29990965127944946 0.007362368516623974 0.021224375814199448)
    (0.002499246969819069 -6.135307194199413e-05 0.02704756148159504)
    (0.002499246969819069 6.135307194199413e-05 0.02704756148159504)
    (0.10001621395349503 -0.0024552601389586926 0.02704756148159504)
    (0.10001621395349503 0.0024552601389586926 0.02704756148159504)
    (0.17292964458465576 -0.004245184361934662 0.02704756148159504)
    (0.17292964458465576 0.004245184361934662 0.02704756148159504)
    (0.21646343171596527 -0.005313878878951073 0.02704756148159504)
    (0.21646343171596527 0.005313878878951073 0.02704756148159504)
    (0.2390529215335846 -0.005868419539183378 0.02704756148159504)
    (0.2390529215335846 0.005868419539183378 0.02704756148159504)
    (0.2499247044324875 -0.006135307252407074 0.02704756148159504)
    (0.2499247044324875 0.006135307252407074 0.02704756148159504)
    (0.2508176565170288 -0.0061572277918457985 0.02704756148159504)
    (0.2508176565170288 0.0061572277918457985 0.02704756148159504)
    (0.2521210312843323 -0.0061892238445580006 0.02704756148159504)
    (0.2521210312843323 0.0061892238445580006 0.02704756148159504)
    (0.2540040612220764 -0.0062354495748877525 0.02704756148159504)
    (0.2540040612220764 0.0062354495748877525 0.02704756148159504)
    (0.2566845715045929 -0.006301252171397209 0.02704756148159504)
    (0.2566845715045929 0.006301252171397209 0.02704756148159504)
    (0.26042088866233826 -0.006392974406480789 0.02704756148159504)
    (0.26042088866233826 0.006392974406480789 0.02704756148159504)
    (0.26547926664352417 -0.0065171499736607075 0.02704756148159504)
    (0.26547926664352417 0.0065171499736607075 0.02704756148159504)
    (0.27206355333328247 -0.006678785663098097 0.02704756148159504)
    (0.27206355333328247 0.006678785663098097 0.02704756148159504)
    (0.2802092432975769 -0.006878750864416361 0.02704756148159504)
    (0.2802092432975769 0.006878750864416361 0.02704756148159504)
    (0.2896757125854492 -0.0071111395955085754 0.02704756148159504)
    (0.2896757125854492 0.0071111395955085754 0.02704756148159504)
    (0.29990965127944946 -0.007362368516623974 0.02704756148159504)
    (0.29990965127944946 0.007362368516623974 0.02704756148159504)
    (0.002499246969819069 -6.135307194199413e-05 0.033926114439964294)
    (0.002499246969819069 6.135307194199413e-05 0.033926114439964294)
    (0.10001621395349503 -0.0024552601389586926 0.033926114439964294)
    (0.10001621395349503 0.0024552601389586926 0.033926114439964294)
    (0.17292964458465576 -0.004245184361934662 0.033926114439964294)
    (0.17292964458465576 0.004245184361934662 0.033926114439964294)
    (0.21646343171596527 -0.005313878878951073 0.033926114439964294)
    (0.21646343171596527 0.005313878878951073 0.033926114439964294)
    (0.2390529215335846 -0.005868419539183378 0.033926114439964294)
    (0.2390529215335846 0.005868419539183378 0.033926114439964294)
    (0.2499247044324875 -0.006135307252407074 0.033926114439964294)
    (0.2499247044324875 0.006135307252407074 0.033926114439964294)
    (0.2508176565170288 -0.0061572277918457985 0.033926114439964294)
    (0.2508176565170288 0.0061572277918457985 0.033926114439964294)
    (0.2521210312843323 -0.0061892238445580006 0.033926114439964294)
    (0.2521210312843323 0.0061892238445580006 0.033926114439964294)
    (0.2540040612220764 -0.0062354495748877525 0.033926114439964294)
    (0.2540040612220764 0.0062354495748877525 0.033926114439964294)
    (0.2566845715045929 -0.006301252171397209 0.033926114439964294)
    (0.2566845715045929 0.006301252171397209 0.033926114439964294)
    (0.26042088866233826 -0.006392974406480789 0.033926114439964294)
    (0.26042088866233826 0.006392974406480789 0.033926114439964294)
    (0.26547926664352417 -0.0065171499736607075 0.033926114439964294)
    (0.26547926664352417 0.0065171499736607075 0.033926114439964294)
    (0.27206355333328247 -0.006678785663098097 0.033926114439964294)
    (0.27206355333328247 0.006678785663098097 0.033926114439964294)
    (0.2802092432975769 -0.006878750864416361 0.033926114439964294)
    (0.2802092432975769 0.006878750864416361 0.033926114439964294)
    (0.2896757125854492 -0.0071111395955085754 0.033926114439964294)
    (0.2896757125854492 0.0071111395955085754 0.033926114439964294)
    (0.29990965127944946 -0.007362368516623974 0.033926114439964294)
    (0.29990965127944946 0.007362368516623974 0.033926114439964294)
    (0.002499246969819069 -6.135307194199413e-05 0.041997432708740234)
    (0.002499246969819069 6.135307194199413e-05 0.041997432708740234)
    (0.10001621395349503 -0.0024552601389586926 0.041997432708740234)
    (0.10001621395349503 0.0024552601389586926 0.041997432708740234)
    (0.17292964458465576 -0.004245184361934662 0.041997432708740234)
    (0.17292964458465576 0.004245184361934662 0.041997432708740234)
    (0.21646343171596527 -0.005313878878951073 0.041997432708740234)
    (0.21646343171596527 0.005313878878951073 0.041997432708740234)
    (0.2390529215335846 -0.005868419539183378 0.041997432708740234)
    (0.2390529215335846 0.005868419539183378 0.041997432708740234)
    (0.2499247044324875 -0.006135307252407074 0.041997432708740234)
    (0.2499247044324875 0.006135307252407074 0.041997432708740234)
    (0.2508176565170288 -0.0061572277918457985 0.041997432708740234)
    (0.2508176565170288 0.0061572277918457985 0.041997432708740234)
    (0.2521210312843323 -0.0061892238445580006 0.041997432708740234)
    (0.2521210312843323 0.0061892238445580006 0.041997432708740234)
    (0.2540040612220764 -0.0062354495748877525 0.041997432708740234)
    (0.2540040612220764 0.0062354495748877525 0.041997432708740234)
    (0.2566845715045929 -0.006301252171397209 0.041997432708740234)
    (0.2566845715045929 0.006301252171397209 0.041997432708740234)
    (0.26042088866233826 -0.006392974406480789 0.041997432708740234)
    (0.26042088866233826 0.006392974406480789 0.041997432708740234)
    (0.26547926664352417 -0.0065171499736607075 0.041997432708740234)
    (0.26547926664352417 0.0065171499736607075 0.041997432708740234)
    (0.27206355333328247 -0.006678785663098097 0.041997432708740234)
    (0.27206355333328247 0.006678785663098097 0.041997432708740234)
    (0.2802092432975769 -0.006878750864416361 0.041997432708740234)
    (0.2802092432975769 0.006878750864416361 0.041997432708740234)
    (0.2896757125854492 -0.0071111395955085754 0.041997432708740234)
    (0.2896757125854492 0.0071111395955085754 0.041997432708740234)
    (0.29990965127944946 -0.007362368516623974 0.041997432708740234)
    (0.29990965127944946 0.007362368516623974 0.041997432708740234)
    (0.002499246969819069 -6.135307194199413e-05 0.051394734531641006)
    (0.002499246969819069 6.135307194199413e-05 0.051394734531641006)
    (0.10001621395349503 -0.0024552601389586926 0.051394734531641006)
    (0.10001621395349503 0.0024552601389586926 0.051394734531641006)
    (0.17292964458465576 -0.004245184361934662 0.051394734531641006)
    (0.17292964458465576 0.004245184361934662 0.051394734531641006)
    (0.21646343171596527 -0.005313878878951073 0.051394734531641006)
    (0.21646343171596527 0.005313878878951073 0.051394734531641006)
    (0.2390529215335846 -0.005868419539183378 0.051394734531641006)
    (0.2390529215335846 0.005868419539183378 0.051394734531641006)
    (0.2499247044324875 -0.006135307252407074 0.051394734531641006)
    (0.2499247044324875 0.006135307252407074 0.051394734531641006)
    (0.2508176565170288 -0.0061572277918457985 0.051394734531641006)
    (0.2508176565170288 0.0061572277918457985 0.051394734531641006)
    (0.2521210312843323 -0.0061892238445580006 0.051394734531641006)
    (0.2521210312843323 0.0061892238445580006 0.051394734531641006)
    (0.2540040612220764 -0.0062354495748877525 0.051394734531641006)
    (0.2540040612220764 0.0062354495748877525 0.051394734531641006)
    (0.2566845715045929 -0.006301252171397209 0.051394734531641006)
    (0.2566845715045929 0.006301252171397209 0.051394734531641006)
    (0.26042088866233826 -0.006392974406480789 0.051394734531641006)
    (0.26042088866233826 0.006392974406480789 0.051394734531641006)
    (0.26547926664352417 -0.0065171499736607075 0.051394734531641006)
    (0.26547926664352417 0.0065171499736607075 0.051394734531641006)
    (0.27206355333328247 -0.006678785663098097 0.051394734531641006)
    (0.27206355333328247 0.006678785663098097 0.051394734531641006)
    (0.2802092432975769 -0.006878750864416361 0.051394734531641006)
    (0.2802092432975769 0.006878750864416361 0.051394734531641006)
    (0.2896757125854492 -0.0071111395955085754 0.051394734531641006)
    (0.2896757125854492 0.0071111395955085754 0.051394734531641006)
    (0.29990965127944946 -0.007362368516623974 0.051394734531641006)
    (0.29990965127944946 0.007362368516623974 0.051394734531641006)
    (0.002499246969819069 -6.135307194199413e-05 0.0622369758784771)
    (0.002499246969819069 6.135307194199413e-05 0.0622369758784771)
    (0.10001621395349503 -0.0024552601389586926 0.0622369758784771)
    (0.10001621395349503 0.0024552601389586926 0.0622369758784771)
    (0.17292964458465576 -0.004245184361934662 0.0622369758784771)
    (0.17292964458465576 0.004245184361934662 0.0622369758784771)
    (0.21646343171596527 -0.005313878878951073 0.0622369758784771)
    (0.21646343171596527 0.005313878878951073 0.0622369758784771)
    (0.2390529215335846 -0.005868419539183378 0.0622369758784771)
    (0.2390529215335846 0.005868419539183378 0.0622369758784771)
    (0.2499247044324875 -0.006135307252407074 0.0622369758784771)
    (0.2499247044324875 0.006135307252407074 0.0622369758784771)
    (0.2508176565170288 -0.0061572277918457985 0.0622369758784771)
    (0.2508176565170288 0.0061572277918457985 0.0622369758784771)
    (0.2521210312843323 -0.0061892238445580006 0.0622369758784771)
    (0.2521210312843323 0.0061892238445580006 0.0622369758784771)
    (0.2540040612220764 -0.0062354495748877525 0.0622369758784771)
    (0.2540040612220764 0.0062354495748877525 0.0622369758784771)
    (0.2566845715045929 -0.006301252171397209 0.0622369758784771)
    (0.2566845715045929 0.006301252171397209 0.0622369758784771)
    (0.26042088866233826 -0.006392974406480789 0.0622369758784771)
    (0.26042088866233826 0.006392974406480789 0.0622369758784771)
    (0.26547926664352417 -0.0065171499736607075 0.0622369758784771)
    (0.26547926664352417 0.0065171499736607075 0.0622369758784771)
    (0.27206355333328247 -0.006678785663098097 0.0622369758784771)
    (0.27206355333328247 0.006678785663098097 0.0622369758784771)
    (0.2802092432975769 -0.006878750864416361 0.0622369758784771)
    (0.2802092432975769 0.006878750864416361 0.0622369758784771)
    (0.2896757125854492 -0.0071111395955085754 0.0622369758784771)
    (0.2896757125854492 0.0071111395955085754 0.0622369758784771)
    (0.29990965127944946 -0.007362368516623974 0.0622369758784771)
    (0.29990965127944946 0.007362368516623974 0.0622369758784771)
    (0.002499246969819069 -6.135307194199413e-05 0.07461608201265335)
    (0.002499246969819069 6.135307194199413e-05 0.07461608201265335)
    (0.10001621395349503 -0.0024552601389586926 0.07461608201265335)
    (0.10001621395349503 0.0024552601389586926 0.07461608201265335)
    (0.17292964458465576 -0.004245184361934662 0.07461608201265335)
    (0.17292964458465576 0.004245184361934662 0.07461608201265335)
    (0.21646343171596527 -0.005313878878951073 0.07461608201265335)
    (0.21646343171596527 0.005313878878951073 0.07461608201265335)
    (0.2390529215335846 -0.005868419539183378 0.07461608201265335)
    (0.2390529215335846 0.005868419539183378 0.07461608201265335)
    (0.2499247044324875 -0.006135307252407074 0.07461608201265335)
    (0.2499247044324875 0.006135307252407074 0.07461608201265335)
    (0.2508176565170288 -0.0061572277918457985 0.07461608201265335)
    (0.2508176565170288 0.0061572277918457985 0.07461608201265335)
    (0.2521210312843323 -0.0061892238445580006 0.07461608201265335)
    (0.2521210312843323 0.0061892238445580006 0.07461608201265335)
    (0.2540040612220764 -0.0062354495748877525 0.07461608201265335)
    (0.2540040612220764 0.0062354495748877525 0.07461608201265335)
    (0.2566845715045929 -0.006301252171397209 0.07461608201265335)
    (0.2566845715045929 0.006301252171397209 0.07461608201265335)
    (0.26042088866233826 -0.006392974406480789 0.07461608201265335)
    (0.26042088866233826 0.006392974406480789 0.07461608201265335)
    (0.26547926664352417 -0.0065171499736607075 0.07461608201265335)
    (0.26547926664352417 0.0065171499736607075 0.07461608201265335)
    (0.27206355333328247 -0.006678785663098097 0.07461608201265335)