FoamFile
{
    version     2.0;
    format      ascii;
    class       dictionary;
    object      controlDict;
}
application     dummy;        // non usato per blockMesh
startFrom       startTime;
startTime       0;
stopAt          endTime;
endTime         0;
deltaT          1;
writeControl    timeStep;
writeInterval   1;
