
/*--------------------------------*- C++ -*----------------------------------*/

// File was generated by SwiftBlock, a Blender 3D addon.

FoamFile
{
    version     2.0;
    format      ascii;
    class       dictionary;
    object      blockMeshDict;
}
// * * * * * * * * * * * * * * * * * * * * * * * * * * * * * * * * * * * * * //

deltaT          1;

writeInterval   1;



// ************************************************************************* //


geometry
{
}
vertices
(
    (0.0024999999441206455 0.0 0.0)
    (0.0024879619013518095 0.00024504284374415874 0.0)
    (0.0024519632570445538 0.00048772580339573324 0.0)
    (0.0023923509288579226 0.0007257116958498955 0.0)
    (0.1262499988079071 0.0 0.0)
    (0.1256420761346817 0.012374663725495338 0.0)
    (0.12382414191961288 0.02463015355169773 0.0)
    (0.12081371992826462 0.03664844110608101 0.0)
    (0.25 0.0 0.0)
    (0.24879617989063263 0.02450428530573845 0.0)
    (0.24519631266593933 0.04877258092164993 0.0)
    (0.23923508822917938 0.07257116585969925 0.0)
    (0.2750000059604645 0.0 0.0)
    (0.273675799369812 0.026954714208841324 0.0)
    (0.26971596479415894 0.053649839013814926 0.0)
    (0.2631585896015167 0.07982828468084335 0.0)
    (0.30000001192092896 0.0 0.0)
    (0.2985554039478302 0.02940514124929905 0.0)
    (0.29423558712005615 0.05852709710597992 0.0)
    (0.28708210587501526 0.08708540350198746 0.0)
    (0.32499998807907104 0.0 0.0)
    (0.3234350383281708 0.03185557201504707 0.0)
    (0.31875520944595337 0.06340435147285461 0.0)
    (0.3110056221485138 0.09434252232313156 0.0)
    (0.3499999940395355 0.0 0.0)
    (0.34831464290618896 0.03430600091814995 0.0)
    (0.343274861574173 0.0682816132903099 0.0)
    (0.33492910861968994 0.10159963369369507 0.0)
    (0.0024999999441206455 0.0 0.05000000074505806)
    (0.0024879619013518095 0.00024504284374415874 0.05000000074505806)
    (0.0024519632570445538 0.00048772580339573324 0.05000000074505806)
    (0.0023923509288579226 0.0007257116958498955 0.05000000074505806)
    (0.1262499988079071 0.0 0.05000000074505806)
    (0.1256420761346817 0.012374663725495338 0.05000000074505806)
    (0.12382414191961288 0.02463015355169773 0.05000000074505806)
    (0.12081371992826462 0.03664844110608101 0.05000000074505806)
    (0.25 0.0 0.05000000074505806)
    (0.24879617989063263 0.02450428530573845 0.05000000074505806)
    (0.24519631266593933 0.04877258092164993 0.05000000074505806)
    (0.23923508822917938 0.07257116585969925 0.05000000074505806)
    (0.2750000059604645 0.0 0.05000000074505806)
    (0.273675799369812 0.026954714208841324 0.05000000074505806)
    (0.26971596479415894 0.053649839013814926 0.05000000074505806)
    (0.2631585896015167 0.07982828468084335 0.05000000074505806)
    (0.30000001192092896 0.0 0.05000000074505806)
    (0.2985554039478302 0.02940514124929905 0.05000000074505806)
    (0.29423558712005615 0.05852709710597992 0.05000000074505806)
    (0.28708210587501526 0.08708540350198746 0.05000000074505806)
    (0.32499998807907104 0.0 0.05000000074505806)
    (0.3234350383281708 0.03185557201504707 0.05000000074505806)
    (0.31875520944595337 0.06340435147285461 0.05000000074505806)
    (0.3110056221485138 0.09434252232313156 0.05000000074505806)
    (0.3499999940395355 0.0 0.05000000074505806)
    (0.34831464290618896 0.03430600091814995 0.05000000074505806)
    (0.343274861574173 0.0682816132903099 0.05000000074505806)
    (0.33492910861968994 0.10159963369369507 0.05000000074505806)
    (0.0024999999441206455 0.0 0.10000000149011612)
    (0.0024879619013518095 0.00024504284374415874 0.10000000149011612)
    (0.0024519632570445538 0.00048772580339573324 0.10000000149011612)
    (0.0023923509288579226 0.0007257116958498955 0.10000000149011612)
    (0.1262499988079071 0.0 0.10000000149011612)
    (0.1256420761346817 0.012374663725495338 0.10000000149011612)
    (0.12382414191961288 0.02463015355169773 0.10000000149011612)
    (0.12081371992826462 0.03664844110608101 0.10000000149011612)
    (0.25 0.0 0.10000000149011612)
    (0.24879617989063263 0.02450428530573845 0.10000000149011612)
    (0.24519631266593933 0.04877258092164993 0.10000000149011612)
    (0.23923508822917938 0.07257116585969925 0.10000000149011612)
    (0.2750000059604645 0.0 0.10000000149011612)
    (0.273675799369812 0.026954714208841324 0.10000000149011612)
    (0.26971596479415894 0.053649839013814926 0.10000000149011612)
    (0.2631585896015167 0.07982828468084335 0.10000000149011612)
    (0.30000001192092896 0.0 0.10000000149011612)
    (0.2985554039478302 0.02940514124929905 0.10000000149011612)
    (0.29423558712005615 0.05852709710597992 0.10000000149011612)
    (0.28708210587501526 0.08708540350198746 0.10000000149011612)
    (0.32499998807907104 0.0 0.10000000149011612)
    (0.3234350383281708 0.03185557201504707 0.10000000149011612)
    (0.31875520944595337 0.06340435147285461 0.10000000149011612)
    (0.3110056221485138 0.09434252232313156 0.10000000149011612)
    (0.3499999940395355 0.0 0.10000000149011612)
    (0.34831464290618896 0.03430600091814995 0.10000000149011612)
    (0.343274861574173 0.0682816132903099 0.10000000149011612)
    (0.33492910861968994 0.10159963369369507 0.10000000149011612)
    (0.0024999999441206455 0.0 0.15000000596046448)
    (0.0024879619013518095 0.00024504284374415874 0.15000000596046448)
    (0.0024519632570445538 0.00048772580339573324 0.15000000596046448)
    (0.0023923509288579226 0.0007257116958498955 0.15000000596046448)
    (0.1262499988079071 0.0 0.15000000596046448)
    (0.1256420761346817 0.012374663725495338 0.15000000596046448)
    (0.12382414191961288 0.02463015355169773 0.15000000596046448)
    (0.12081371992826462 0.03664844110608101 0.15000000596046448)
    (0.25 0.0 0.15000000596046448)
    (0.24879617989063263 0.02450428530573845 0.15000000596046448)
    (0.24519631266593933 0.04877258092164993 0.15000000596046448)
    (0.23923508822917938 0.07257116585969925 0.15000000596046448)
    (0.2750000059604645 0.0 0.15000000596046448)
    (0.273675799369812 0.026954714208841324 0.15000000596046448)
    (0.26971596479415894 0.053649839013814926 0.15000000596046448)
    (0.2631585896015167 0.07982828468084335 0.15000000596046448)
    (0.30000001192092896 0.0 0.15000000596046448)
    (0.2985554039478302 0.02940514124929905 0.15000000596046448)
    (0.29423558712005615 0.05852709710597992 0.15000000596046448)
    (0.28708210587501526 0.08708540350198746 0.15000000596046448)
    (0.32499998807907104 0.0 0.15000000596046448)
    (0.3234350383281708 0.03185557201504707 0.15000000596046448)
    (0.31875520944595337 0.06340435147285461 0.15000000596046448)
    (0.3110056221485138 0.09434252232313156 0.15000000596046448)
    (0.3499999940395355 0.0 0.15000000596046448)
    (0.34831464290618896 0.03430600091814995 0.15000000596046448)
    (0.343274861574173 0.0682816132903099 0.15000000596046448)
    (0.33492910861968994 0.10159963369369507 0.15000000596046448)
    (0.0024999999441206455 0.0 0.20000000298023224)
    (0.0024879619013518095 0.00024504284374415874 0.20000000298023224)
    (0.0024519632570445538 0.00048772580339573324 0.20000000298023224)
    (0.0023923509288579226 0.0007257116958498955 0.20000000298023224)
    (0.1262499988079071 0.0 0.20000000298023224)
    (0.1256420761346817 0.012374663725495338 0.20000000298023224)
    (0.12382414191961288 0.02463015355169773 0.20000000298023224)
    (0.12081371992826462 0.03664844110608101 0.20000000298023224)
    (0.25 0.0 0.20000000298023224)
    (0.24879617989063263 0.02450428530573845 0.20000000298023224)
    (0.24519631266593933 0.04877258092164993 0.20000000298023224)
    (0.23923508822917938 0.07257116585969925 0.20000000298023224)
    (0.2750000059604645 0.0 0.20000000298023224)
    (0.273675799369812 0.026954714208841324 0.20000000298023224)
    (0.26971596479415894 0.053649839013814926 0.20000000298023224)
    (0.2631585896015167 0.07982828468084335 0.20000000298023224)
    (0.30000001192092896 0.0 0.20000000298023224)
    (0.2985554039478302 0.02940514124929905 0.20000000298023224)
    (0.29423558712005615 0.05852709710597992 0.20000000298023224)
    (0.28708210587501526 0.08708540350198746 0.20000000298023224)
    (0.32499998807907104 0.0 0.20000000298023224)
    (0.3234350383281708 0.03185557201504707 0.20000000298023224)
    (0.31875520944595337 0.06340435147285461 0.20000000298023224)
    (0.3110056221485138 0.09434252232313156 0.20000000298023224)
    (0.3499999940395355 0.0 0.20000000298023224)
    (0.34831464290618896 0.03430600091814995 0.20000000298023224)
    (0.343274861574173 0.0682816132903099 0.20000000298023224)
    (0.33492910861968994 0.10159963369369507 0.20000000298023224)
);
edges
(
);
faces
(
);
blocks
(
// block id 0 
hex (0 4 5 1 28 32 33 29)  (10 10 10) edgeGrading (
(
 (0 0 1) (1 10 1) (0 0 1) 
)
(
 (0 0 1) (1 10 1) (0 0 1) 
)
(
 (0 0 1) (1 10 1) (0 0 1) 
)
(
 (0 0 1) (1 10 1) (0 0 1) 
)
(
 (0 0 1) (1 10 1) (0 0 1) 
)
(
 (0 0 1) (1 10 1) (0 0 1) 
)
(
 (0 0 1) (1 10 1) (0 0 1) 
)
(
 (0 0 1) (1 10 1) (0 0 1) 
)
(
 (0 0 1) (1 10 1) (0 0 1) 
)
(
 (0 0 1) (1 10 1) (0 0 1) 
)
(
 (0 0 1) (1 10 1) (0 0 1) 
)
(
 (0 0 1) (1 10 1) (0 0 1) 
)
)
// block id 1 
hex (1 5 6 2 29 33 34 30)  (10 10 10) edgeGrading (
(
 (0 0 1) (1 10 1) (0 0 1) 
)
(
 (0 0 1) (1 10 1) (0 0 1) 
)
(
 (0 0 1) (1 10 1) (0 0 1) 
)
(
 (0 0 1) (1 10 1) (0 0 1) 
)
(
 (0 0 1) (1 10 1) (0 0 1) 
)
(
 (0 0 1) (1 10 1) (0 0 1) 
)
(
 (0 0 1) (1 10 1) (0 0 1) 
)
(
 (0 0 1) (1 10 1) (0 0 1) 
)
(
 (0 0 1) (1 10 1) (0 0 1) 
)
(
 (0 0 1) (1 10 1) (0 0 1) 
)
(
 (0 0 1) (1 10 1) (0 0 1) 
)
(
 (0 0 1) (1 10 1) (0 0 1) 
)
)
// block id 2 
hex (2 6 7 3 30 34 35 31)  (10 10 10) edgeGrading (
(
 (0 0 1) (1 10 1) (0 0 1) 
)
(
 (0 0 1) (1 10 1) (0 0 1) 
)
(
 (0 0 1) (1 10 1) (0 0 1) 
)
(
 (0 0 1) (1 10 1) (0 0 1) 
)
(
 (0 0 1) (1 10 1) (0 0 1) 
)
(
 (0 0 1) (1 10 1) (0 0 1) 
)
(
 (0 0 1) (1 10 1) (0 0 1) 
)
(
 (0 0 1) (1 10 1) (0 0 1) 
)
(
 (0 0 1) (1 10 1) (0 0 1) 
)
(
 (0 0 1) (1 10 1) (0 0 1) 
)
(
 (0 0 1) (1 10 1) (0 0 1) 
)
(
 (0 0 1) (1 10 1) (0 0 1) 
)
)
// block id 3 
hex (32 33 37 36 4 5 9 8)  (10 10 10) edgeGrading (
(
 (0 0 1) (1 10 1) (0 0 1) 
)
(
 (0 0 1) (1 10 1) (0 0 1) 
)
(
 (0 0 1) (1 10 1) (0 0 1) 
)
(
 (0 0 1) (1 10 1) (0 0 1) 
)
(
 (0 0 1) (1 10 1) (0 0 1) 
)
(
 (0 0 1) (1 10 1) (0 0 1) 
)
(
 (0 0 1) (1 10 1) (0 0 1) 
)
(
 (0 0 1) (1 10 1) (0 0 1) 
)
(
 (0 0 1) (1 10 1) (0 0 1) 
)
(
 (0 0 1) (1 10 1) (0 0 1) 
)
(
 (0 0 1) (1 10 1) (0 0 1) 
)
(
 (0 0 1) (1 10 1) (0 0 1) 
)
)
// block id 4 
hex (33 34 38 37 5 6 10 9)  (10 10 10) edgeGrading (
(
 (0 0 1) (1 10 1) (0 0 1) 
)
(
 (0 0 1) (1 10 1) (0 0 1) 
)
(
 (0 0 1) (1 10 1) (0 0 1) 
)
(
 (0 0 1) (1 10 1) (0 0 1) 
)
(
 (0 0 1) (1 10 1) (0 0 1) 
)
(
 (0 0 1) (1 10 1) (0 0 1) 
)
(
 (0 0 1) (1 10 1) (0 0 1) 
)
(
 (0 0 1) (1 10 1) (0 0 1) 
)
(
 (0 0 1) (1 10 1) (0 0 1) 
)
(
 (0 0 1) (1 10 1) (0 0 1) 
)
(
 (0 0 1) (1 10 1) (0 0 1) 
)
(
 (0 0 1) (1 10 1) (0 0 1) 
)
)
// block id 5 
hex (34 35 39 38 6 7 11 10)  (10 10 10) edgeGrading (
(
 (0 0 1) (1 10 1) (0 0 1) 
)
(
 (0 0 1) (1 10 1) (0 0 1) 
)
(
 (0 0 1) (1 10 1) (0 0 1) 
)
(
 (0 0 1) (1 10 1) (0 0 1) 
)
(
 (0 0 1) (1 10 1) (0 0 1) 
)
(
 (0 0 1) (1 10 1) (0 0 1) 
)
(
 (0 0 1) (1 10 1) (0 0 1) 
)
(
 (0 0 1) (1 10 1) (0 0 1) 
)
(
 (0 0 1) (1 10 1) (0 0 1) 
)
(
 (0 0 1) (1 10 1) (0 0 1) 
)
(
 (0 0 1) (1 10 1) (0 0 1) 
)
(
 (0 0 1) (1 10 1) (0 0 1) 
)
)
// block id 6 
hex (36 37 41 40 8 9 13 12)  (10 10 10) edgeGrading (
(
 (0 0 1) (1 10 1) (0 0 1) 
)
(
 (0 0 1) (1 10 1) (0 0 1) 
)
(
 (0 0 1) (1 10 1) (0 0 1) 
)
(
 (0 0 1) (1 10 1) (0 0 1) 
)
(
 (0 0 1) (1 10 1) (0 0 1) 
)
(
 (0 0 1) (1 10 1) (0 0 1) 
)
(
 (0 0 1) (1 10 1) (0 0 1) 
)
(
 (0 0 1) (1 10 1) (0 0 1) 
)
(
 (0 0 1) (1 10 1) (0 0 1) 
)
(
 (0 0 1) (1 10 1) (0 0 1) 
)
(
 (0 0 1) (1 10 1) (0 0 1) 
)
(
 (0 0 1) (1 10 1) (0 0 1) 
)
)
// block id 7 
hex (37 38 42 41 9 10 14 13)  (10 10 10) edgeGrading (
(
 (0 0 1) (1 10 1) (0 0 1) 
)
(
 (0 0 1) (1 10 1) (0 0 1) 
)
(
 (0 0 1) (1 10 1) (0 0 1) 
)
(
 (0 0 1) (1 10 1) (0 0 1) 
)
(
 (0 0 1) (1 10 1) (0 0 1) 
)
(
 (0 0 1) (1 10 1) (0 0 1) 
)
(
 (0 0 1) (1 10 1) (0 0 1) 
)
(
 (0 0 1) (1 10 1) (0 0 1) 
)
(
 (0 0 1) (1 10 1) (0 0 1) 
)
(
 (0 0 1) (1 10 1) (0 0 1) 
)
(
 (0 0 1) (1 10 1) (0 0 1) 
)
(
 (0 0 1) (1 10 1) (0 0 1) 
)
)
// block id 8 
hex (38 39 43 42 10 11 15 14)  (10 10 10) edgeGrading (
(
 (0 0 1) (1 10 1) (0 0 1) 
)
(
 (0 0 1) (1 10 1) (0 0 1) 
)
(
 (0 0 1) (1 10 1) (0 0 1) 
)
(
 (0 0 1) (1 10 1) (0 0 1) 
)
(
 (0 0 1) (1 10 1) (0 0 1) 
)
(
 (0 0 1) (1 10 1) (0 0 1) 
)
(
 (0 0 1) (1 10 1) (0 0 1) 
)
(
 (0 0 1) (1 10 1) (0 0 1) 
)
(
 (0 0 1) (1 10 1) (0 0 1) 
)
(
 (0 0 1) (1 10 1) (0 0 1) 
)
(
 (0 0 1) (1 10 1) (0 0 1) 
)
(
 (0 0 1) (1 10 1) (0 0 1) 
)
)
// block id 9 
hex (40 41 45 44 12 13 17 16)  (10 10 10) edgeGrading (
(
 (0 0 1) (1 10 1) (0 0 1) 
)
(
 (0 0 1) (1 10 1) (0 0 1) 
)
(
 (0 0 1) (1 10 1) (0 0 1) 
)
(
 (0 0 1) (1 10 1) (0 0 1) 
)
(
 (0 0 1) (1 10 1) (0 0 1) 
)
(
 (0 0 1) (1 10 1) (0 0 1) 
)
(
 (0 0 1) (1 10 1) (0 0 1) 
)
(
 (0 0 1) (1 10 1) (0 0 1) 
)
(
 (0 0 1) (1 10 1) (0 0 1) 
)
(
 (0 0 1) (1 10 1) (0 0 1) 
)
(
 (0 0 1) (1 10 1) (0 0 1) 
)
(
 (0 0 1) (1 10 1) (0 0 1) 
)
)
// block id 10 
hex (41 42 46 45 13 14 18 17)  (10 10 10) edgeGrading (
(
 (0 0 1) (1 10 1) (0 0 1) 
)
(
 (0 0 1) (1 10 1) (0 0 1) 
)
(
 (0 0 1) (1 10 1) (0 0 1) 
)
(
 (0 0 1) (1 10 1) (0 0 1) 
)
(
 (0 0 1) (1 10 1) (0 0 1) 
)
(
 (0 0 1) (1 10 1) (0 0 1) 
)
(
 (0 0 1) (1 10 1) (0 0 1) 
)
(
 (0 0 1) (1 10 1) (0 0 1) 
)
(
 (0 0 1) (1 10 1) (0 0 1) 
)
(
 (0 0 1) (1 10 1) (0 0 1) 
)
(
 (0 0 1) (1 10 1) (0 0 1) 
)
(
 (0 0 1) (1 10 1) (0 0 1) 
)
)
// block id 11 
hex (42 43 47 46 14 15 19 18)  (10 10 10) edgeGrading (
(
 (0 0 1) (1 10 1) (0 0 1) 
)
(
 (0 0 1) (1 10 1) (0 0 1) 
)
(
 (0 0 1) (1 10 1) (0 0 1) 
)
(
 (0 0 1) (1 10 1) (0 0 1) 
)
(
 (0 0 1) (1 10 1) (0 0 1) 
)
(
 (0 0 1) (1 10 1) (0 0 1) 
)
(
 (0 0 1) (1 10 1) (0 0 1) 
)
(
 (0 0 1) (1 10 1) (0 0 1) 
)
(
 (0 0 1) (1 10 1) (0 0 1) 
)
(
 (0 0 1) (1 10 1) (0 0 1) 
)
(
 (0 0 1) (1 10 1) (0 0 1) 
)
(
 (0 0 1) (1 10 1) (0 0 1) 
)
)
// block id 12 
hex (44 45 49 48 16 17 21 20)  (10 10 10) edgeGrading (
(
 (0 0 1) (1 10 1) (0 0 1) 
)
(
 (0 0 1) (1 10 1) (0 0 1) 
)
(
 (0 0 1) (1 10 1) (0 0 1) 
)
(
 (0 0 1) (1 10 1) (0 0 1) 
)
(
 (0 0 1) (1 10 1) (0 0 1) 
)
(
 (0 0 1) (1 10 1) (0 0 1) 
)
(
 (0 0 1) (1 10 1) (0 0 1) 
)
(
 (0 0 1) (1 10 1) (0 0 1) 
)
(
 (0 0 1) (1 10 1) (0 0 1) 
)
(
 (0 0 1) (1 10 1) (0 0 1) 
)
(
 (0 0 1) (1 10 1) (0 0 1) 
)
(
 (0 0 1) (1 10 1) (0 0 1) 
)
)
// block id 13 
hex (45 46 50 49 17 18 22 21)  (10 10 10) edgeGrading (
(
 (0 0 1) (1 10 1) (0 0 1) 
)
(
 (0 0 1) (1 10 1) (0 0 1) 
)
(
 (0 0 1) (1 10 1) (0 0 1) 
)
(
 (0 0 1) (1 10 1) (0 0 1) 
)
(
 (0 0 1) (1 10 1) (0 0 1) 
)
(
 (0 0 1) (1 10 1) (0 0 1) 
)
(
 (0 0 1) (1 10 1) (0 0 1) 
)
(
 (0 0 1) (1 10 1) (0 0 1) 
)
(
 (0 0 1) (1 10 1) (0 0 1) 
)
(
 (0 0 1) (1 10 1) (0 0 1) 
)
(
 (0 0 1) (1 10 1) (0 0 1) 
)
(
 (0 0 1) (1 10 1) (0 0 1) 
)
)
// block id 14 
hex (46 47 51 50 18 19 23 22)  (10 10 10) edgeGrading (
(
 (0 0 1) (1 10 1) (0 0 1) 
)
(
 (0 0 1) (1 10 1) (0 0 1) 
)
(
 (0 0 1) (1 10 1) (0 0 1) 
)
(
 (0 0 1) (1 10 1) (0 0 1) 
)
(
 (0 0 1) (1 10 1) (0 0 1) 
)
(
 (0 0 1) (1 10 1) (0 0 1) 
)
(
 (0 0 1) (1 10 1) (0 0 1) 
)
(
 (0 0 1) (1 10 1) (0 0 1) 
)
(
 (0 0 1) (1 10 1) (0 0 1) 
)
(
 (0 0 1) (1 10 1) (0 0 1) 
)
(
 (0 0 1) (1 10 1) (0 0 1) 
)
(
 (0 0 1) (1 10 1) (0 0 1) 
)
)
// block id 15 
hex (48 49 53 52 20 21 25 24)  (10 10 10) edgeGrading (
(
 (0 0 1) (1 10 1) (0 0 1) 
)
(
 (0 0 1) (1 10 1) (0 0 1) 
)
(
 (0 0 1) (1 10 1) (0 0 1) 
)
(
 (0 0 1) (1 10 1) (0 0 1) 
)
(
 (0 0 1) (1 10 1) (0 0 1) 
)
(
 (0 0 1) (1 10 1) (0 0 1) 
)
(
 (0 0 1) (1 10 1) (0 0 1) 
)
(
 (0 0 1) (1 10 1) (0 0 1) 
)
(
 (0 0 1) (1 10 1) (0 0 1) 
)
(
 (0 0 1) (1 10 1) (0 0 1) 
)
(
 (0 0 1) (1 10 1) (0 0 1) 
)
(
 (0 0 1) (1 10 1) (0 0 1) 
)
)
// block id 16 
hex (49 50 54 53 21 22 26 25)  (10 10 10) edgeGrading (
(
 (0 0 1) (1 10 1) (0 0 1) 
)
(
 (0 0 1) (1 10 1) (0 0 1) 
)
(
 (0 0 1) (1 10 1) (0 0 1) 
)
(
 (0 0 1) (1 10 1) (0 0 1) 
)
(
 (0 0 1) (1 10 1) (0 0 1) 
)
(
 (0 0 1) (1 10 1) (0 0 1) 
)
(
 (0 0 1) (1 10 1) (0 0 1) 
)
(
 (0 0 1) (1 10 1) (0 0 1) 
)
(
 (0 0 1) (1 10 1) (0 0 1) 
)
(
 (0 0 1) (1 10 1) (0 0 1) 
)
(
 (0 0 1) (1 10 1) (0 0 1) 
)
(
 (0 0 1) (1 10 1) (0 0 1) 
)
)
// block id 17 
hex (50 51 55 54 22 23 27 26)  (10 10 10) edgeGrading (
(
 (0 0 1) (1 10 1) (0 0 1) 
)
(
 (0 0 1) (1 10 1) (0 0 1) 
)
(
 (0 0 1) (1 10 1) (0 0 1) 
)
(
 (0 0 1) (1 10 1) (0 0 1) 
)
(
 (0 0 1) (1 10 1) (0 0 1) 
)
(
 (0 0 1) (1 10 1) (0 0 1) 
)
(
 (0 0 1) (1 10 1) (0 0 1) 
)
(
 (0 0 1) (1 10 1) (0 0 1) 
)
(
 (0 0 1) (1 10 1) (0 0 1) 
)
(
 (0 0 1) (1 10 1) (0 0 1) 
)
(
 (0 0 1) (1 10 1) (0 0 1) 
)
(
 (0 0 1) (1 10 1) (0 0 1) 
)
)
// block id 18 
hex (56 57 61 60 28 29 33 32)  (10 10 10) edgeGrading (
(
 (0 0 1) (1 10 1) (0 0 1) 
)
(
 (0 0 1) (1 10 1) (0 0 1) 
)
(
 (0 0 1) (1 10 1) (0 0 1) 
)
(
 (0 0 1) (1 10 1) (0 0 1) 
)
(
 (0 0 1) (1 10 1) (0 0 1) 
)
(
 (0 0 1) (1 10 1) (0 0 1) 
)
(
 (0 0 1) (1 10 1) (0 0 1) 
)
(
 (0 0 1) (1 10 1) (0 0 1) 
)
(
 (0 0 1) (1 10 1) (0 0 1) 
)
(
 (0 0 1) (1 10 1) (0 0 1) 
)
(
 (0 0 1) (1 10 1) (0 0 1) 
)
(
 (0 0 1) (1 10 1) (0 0 1) 
)
)
// block id 19 
hex (57 58 62 61 29 30 34 33)  (10 10 10) edgeGrading (
(
 (0 0 1) (1 10 1) (0 0 1) 
)
(
 (0 0 1) (1 10 1) (0 0 1) 
)
(
 (0 0 1) (1 10 1) (0 0 1) 
)
(
 (0 0 1) (1 10 1) (0 0 1) 
)
(
 (0 0 1) (1 10 1) (0 0 1) 
)
(
 (0 0 1) (1 10 1) (0 0 1) 
)
(
 (0 0 1) (1 10 1) (0 0 1) 
)
(
 (0 0 1) (1 10 1) (0 0 1) 
)
(
 (0 0 1) (1 10 1) (0 0 1) 
)
(
 (0 0 1) (1 10 1) (0 0 1) 
)
(
 (0 0 1) (1 10 1) (0 0 1) 
)
(
 (0 0 1) (1 10 1) (0 0 1) 
)
)
// block id 20 
hex (58 59 63 62 30 31 35 34)  (10 10 10) edgeGrading (
(
 (0 0 1) (1 10 1) (0 0 1) 
)
(
 (0 0 1) (1 10 1) (0 0 1) 
)
(
 (0 0 1) (1 10 1) (0 0 1) 
)
(
 (0 0 1) (1 10 1) (0 0 1) 
)
(
 (0 0 1) (1 10 1) (0 0 1) 
)
(
 (0 0 1) (1 10 1) (0 0 1) 
)
(
 (0 0 1) (1 10 1) (0 0 1) 
)
(
 (0 0 1) (1 10 1) (0 0 1) 
)
(
 (0 0 1) (1 10 1) (0 0 1) 
)
(
 (0 0 1) (1 10 1) (0 0 1) 
)
(
 (0 0 1) (1 10 1) (0 0 1) 
)
(
 (0 0 1) (1 10 1) (0 0 1) 
)
)
// block id 21 
hex (60 61 65 64 32 33 37 36)  (10 10 10) edgeGrading (
(
 (0 0 1) (1 10 1) (0 0 1) 
)
(
 (0 0 1) (1 10 1) (0 0 1) 
)
(
 (0 0 1) (1 10 1) (0 0 1) 
)
(
 (0 0 1) (1 10 1) (0 0 1) 
)
(
 (0 0 1) (1 10 1) (0 0 1) 
)
(
 (0 0 1) (1 10 1) (0 0 1) 
)
(
 (0 0 1) (1 10 1) (0 0 1) 
)
(
 (0 0 1) (1 10 1) (0 0 1) 
)
(
 (0 0 1) (1 10 1) (0 0 1) 
)
(
 (0 0 1) (1 10 1) (0 0 1) 
)
(
 (0 0 1) (1 10 1) (0 0 1) 
)
(
 (0 0 1) (1 10 1) (0 0 1) 
)
)
// block id 22 
hex (61 62 66 65 33 34 38 37)  (10 10 10) edgeGrading (
(
 (0 0 1) (1 10 1) (0 0 1) 
)
(
 (0 0 1) (1 10 1) (0 0 1) 
)
(
 (0 0 1) (1 10 1) (0 0 1) 
)
(
 (0 0 1) (1 10 1) (0 0 1) 
)
(
 (0 0 1) (1 10 1) (0 0 1) 
)
(
 (0 0 1) (1 10 1) (0 0 1) 
)
(
 (0 0 1) (1 10 1) (0 0 1) 
)
(
 (0 0 1) (1 10 1) (0 0 1) 
)
(
 (0 0 1) (1 10 1) (0 0 1) 
)
(
 (0 0 1) (1 10 1) (0 0 1) 
)
(
 (0 0 1) (1 10 1) (0 0 1) 
)
(
 (0 0 1) (1 10 1) (0 0 1) 
)
)
// block id 23 
hex (62 63 67 66 34 35 39 38)  (10 10 10) edgeGrading (
(
 (0 0 1) (1 10 1) (0 0 1) 
)
(
 (0 0 1) (1 10 1) (0 0 1) 
)
(
 (0 0 1) (1 10 1) (0 0 1) 
)
(
 (0 0 1) (1 10 1) (0 0 1) 
)
(
 (0 0 1) (1 10 1) (0 0 1) 
)
(
 (0 0 1) (1 10 1) (0 0 1) 
)
(
 (0 0 1) (1 10 1) (0 0 1) 
)
(
 (0 0 1) (1 10 1) (0 0 1) 
)
(
 (0 0 1) (1 10 1) (0 0 1) 
)
(
 (0 0 1) (1 10 1) (0 0 1) 
)
(
 (0 0 1) (1 10 1) (0 0 1) 
)
(
 (0 0 1) (1 10 1) (0 0 1) 
)
)
// block id 24 
hex (64 65 69 68 36 37 41 40)  (10 10 10) edgeGrading (
(
 (0 0 1) (1 10 1) (0 0 1) 
)
(
 (0 0 1) (1 10 1) (0 0 1) 
)
(
 (0 0 1) (1 10 1) (0 0 1) 
)
(
 (0 0 1) (1 10 1) (0 0 1) 
)
(
 (0 0 1) (1 10 1) (0 0 1) 
)
(
 (0 0 1) (1 10 1) (0 0 1) 
)
(
 (0 0 1) (1 10 1) (0 0 1) 
)
(
 (0 0 1) (1 10 1) (0 0 1) 
)
(
 (0 0 1) (1 10 1) (0 0 1) 
)
(
 (0 0 1) (1 10 1) (0 0 1) 
)
(
 (0 0 1) (1 10 1) (0 0 1) 
)
(
 (0 0 1) (1 10 1) (0 0 1) 
)
)
// block id 25 
hex (65 66 70 69 37 38 42 41)  (10 10 10) edgeGrading (
(
 (0 0 1) (1 10 1) (0 0 1) 
)
(
 (0 0 1) (1 10 1) (0 0 1) 
)
(
 (0 0 1) (1 10 1) (0 0 1) 
)
(
 (0 0 1) (1 10 1) (0 0 1) 
)
(
 (0 0 1) (1 10 1) (0 0 1) 
)
(
 (0 0 1) (1 10 1) (0 0 1) 
)
(
 (0 0 1) (1 10 1) (0 0 1) 
)
(
 (0 0 1) (1 10 1) (0 0 1) 
)
(
 (0 0 1) (1 10 1) (0 0 1) 
)
(
 (0 0 1) (1 10 1) (0 0 1) 
)
(
 (0 0 1) (1 10 1) (0 0 1) 
)
(
 (0 0 1) (1 10 1) (0 0 1) 
)
)
// block id 26 
hex (66 67 71 70 38 39 43 42)  (10 10 10) edgeGrading (
(
 (0 0 1) (1 10 1) (0 0 1) 
)
(
 (0 0 1) (1 10 1) (0 0 1) 
)
(
 (0 0 1) (1 10 1) (0 0 1) 
)
(
 (0 0 1) (1 10 1) (0 0 1) 
)
(
 (0 0 1) (1 10 1) (0 0 1) 
)
(
 (0 0 1) (1 10 1) (0 0 1) 
)
(
 (0 0 1) (1 10 1) (0 0 1) 
)
(
 (0 0 1) (1 10 1) (0 0 1) 
)
(
 (0 0 1) (1 10 1) (0 0 1) 
)
(
 (0 0 1) (1 10 1) (0 0 1) 
)
(
 (0 0 1) (1 10 1) (0 0 1) 
)
(
 (0 0 1) (1 10 1) (0 0 1) 
)
)
// block id 27 
hex (68 69 73 72 40 41 45 44)  (10 10 10) edgeGrading (
(
 (0 0 1) (1 10 1) (0 0 1) 
)
(
 (0 0 1) (1 10 1) (0 0 1) 
)
(
 (0 0 1) (1 10 1) (0 0 1) 
)
(
 (0 0 1) (1 10 1) (0 0 1) 
)
(
 (0 0 1) (1 10 1) (0 0 1) 
)
(
 (0 0 1) (1 10 1) (0 0 1) 
)
(
 (0 0 1) (1 10 1) (0 0 1) 
)
(
 (0 0 1) (1 10 1) (0 0 1) 
)
(
 (0 0 1) (1 10 1) (0 0 1) 
)
(
 (0 0 1) (1 10 1) (0 0 1) 
)
(
 (0 0 1) (1 10 1) (0 0 1) 
)
(
 (0 0 1) (1 10 1) (0 0 1) 
)
)
// block id 28 
hex (69 70 74 73 41 42 46 45)  (10 10 10) edgeGrading (
(
 (0 0 1) (1 10 1) (0 0 1) 
)
(
 (0 0 1) (1 10 1) (0 0 1) 
)
(
 (0 0 1) (1 10 1) (0 0 1) 
)
(
 (0 0 1) (1 10 1) (0 0 1) 
)
(
 (0 0 1) (1 10 1) (0 0 1) 
)
(
 (0 0 1) (1 10 1) (0 0 1) 
)
(
 (0 0 1) (1 10 1) (0 0 1) 
)
(
 (0 0 1) (1 10 1) (0 0 1) 
)
(
 (0 0 1) (1 10 1) (0 0 1) 
)
(
 (0 0 1) (1 10 1) (0 0 1) 
)
(
 (0 0 1) (1 10 1) (0 0 1) 
)
(
 (0 0 1) (1 10 1) (0 0 1) 
)
)
// block id 29 
hex (70 71 75 74 42 43 47 46)  (10 10 10) edgeGrading (
(
 (0 0 1) (1 10 1) (0 0 1) 
)
(
 (0 0 1) (1 10 1) (0 0 1) 
)
(
 (0 0 1) (1 10 1) (0 0 1) 
)
(
 (0 0 1) (1 10 1) (0 0 1) 
)
(
 (0 0 1) (1 10 1) (0 0 1) 
)
(
 (0 0 1) (1 10 1) (0 0 1) 
)
(
 (0 0 1) (1 10 1) (0 0 1) 
)
(
 (0 0 1) (1 10 1) (0 0 1) 
)
(
 (0 0 1) (1 10 1) (0 0 1) 
)
(
 (0 0 1) (1 10 1) (0 0 1) 
)
(
 (0 0 1) (1 10 1) (0 0 1) 
)
(
 (0 0 1) (1 10 1) (0 0 1) 
)
)
// block id 30 
hex (72 73 77 76 44 45 49 48)  (10 10 10) edgeGrading (
(
 (0 0 1) (1 10 1) (0 0 1) 
)
(
 (0 0 1) (1 10 1) (0 0 1) 
)
(
 (0 0 1) (1 10 1) (0 0 1) 
)
(
 (0 0 1) (1 10 1) (0 0 1) 
)
(
 (0 0 1) (1 10 1) (0 0 1) 
)
(
 (0 0 1) (1 10 1) (0 0 1) 
)
(
 (0 0 1) (1 10 1) (0 0 1) 
)
(
 (0 0 1) (1 10 1) (0 0 1) 
)
(
 (0 0 1) (1 10 1) (0 0 1) 
)
(
 (0 0 1) (1 10 1) (0 0 1) 
)
(
 (0 0 1) (1 10 1) (0 0 1) 
)
(
 (0 0 1) (1 10 1) (0 0 1) 
)
)
// block id 31 
hex (73 74 78 77 45 46 50 49)  (10 10 10) edgeGrading (
(
 (0 0 1) (1 10 1) (0 0 1) 
)
(
 (0 0 1) (1 10 1) (0 0 1) 
)
(
 (0 0 1) (1 10 1) (0 0 1) 
)
(
 (0 0 1) (1 10 1) (0 0 1) 
)
(
 (0 0 1) (1 10 1) (0 0 1) 
)
(
 (0 0 1) (1 10 1) (0 0 1) 
)
(
 (0 0 1) (1 10 1) (0 0 1) 
)
(
 (0 0 1) (1 10 1) (0 0 1) 
)
(
 (0 0 1) (1 10 1) (0 0 1) 
)
(
 (0 0 1) (1 10 1) (0 0 1) 
)
(
 (0 0 1) (1 10 1) (0 0 1) 
)
(
 (0 0 1) (1 10 1) (0 0 1) 
)
)
// block id 32 
hex (74 75 79 78 46 47 51 50)  (10 10 10) edgeGrading (
(
 (0 0 1) (1 10 1) (0 0 1) 
)
(
 (0 0 1) (1 10 1) (0 0 1) 
)
(
 (0 0 1) (1 10 1) (0 0 1) 
)
(
 (0 0 1) (1 10 1) (0 0 1) 
)
(
 (0 0 1) (1 10 1) (0 0 1) 
)
(
 (0 0 1) (1 10 1) (0 0 1) 
)
(
 (0 0 1) (1 10 1) (0 0 1) 
)
(
 (0 0 1) (1 10 1) (0 0 1) 
)
(
 (0 0 1) (1 10 1) (0 0 1) 
)
(
 (0 0 1) (1 10 1) (0 0 1) 
)
(
 (0 0 1) (1 10 1) (0 0 1) 
)
(
 (0 0 1) (1 10 1) (0 0 1) 
)
)
// block id 33 
hex (76 77 81 80 48 49 53 52)  (10 10 10) edgeGrading (
(
 (0 0 1) (1 10 1) (0 0 1) 
)
(
 (0 0 1) (1 10 1) (0 0 1) 
)
(
 (0 0 1) (1 10 1) (0 0 1) 
)
(
 (0 0 1) (1 10 1) (0 0 1) 
)
(
 (0 0 1) (1 10 1) (0 0 1) 
)
(
 (0 0 1) (1 10 1) (0 0 1) 
)
(
 (0 0 1) (1 10 1) (0 0 1) 
)
(
 (0 0 1) (1 10 1) (0 0 1) 
)
(
 (0 0 1) (1 10 1) (0 0 1) 
)
(
 (0 0 1) (1 10 1) (0 0 1) 
)
(
 (0 0 1) (1 10 1) (0 0 1) 
)
(
 (0 0 1) (1 10 1) (0 0 1) 
)
)
// block id 34 
hex (77 78 82 81 49 50 54 53)  (10 10 10) edgeGrading (
(
 (0 0 1) (1 10 1) (0 0 1) 
)
(
 (0 0 1) (1 10 1) (0 0 1) 
)
(
 (0 0 1) (1 10 1) (0 0 1) 
)
(
 (0 0 1) (1 10 1) (0 0 1) 
)
(
 (0 0 1) (1 10 1) (0 0 1) 
)
(
 (0 0 1) (1 10 1) (0 0 1) 
)
(
 (0 0 1) (1 10 1) (0 0 1) 
)
(
 (0 0 1) (1 10 1) (0 0 1) 
)
(
 (0 0 1) (1 10 1) (0 0 1) 
)
(
 (0 0 1) (1 10 1) (0 0 1) 
)
(
 (0 0 1) (1 10 1) (0 0 1) 
)
(
 (0 0 1) (1 10 1) (0 0 1) 
)
)
// block id 35 
hex (78 79 83 82 50 51 55 54)  (10 10 10) edgeGrading (
(
 (0 0 1) (1 10 1) (0 0 1) 
)
(
 (0 0 1) (1 10 1) (0 0 1) 
)
(
 (0 0 1) (1 10 1) (0 0 1) 
)
(
 (0 0 1) (1 10 1) (0 0 1) 
)
(
 (0 0 1) (1 10 1) (0 0 1) 
)
(
 (0 0 1) (1 10 1) (0 0 1) 
)
(
 (0 0 1) (1 10 1) (0 0 1) 
)
(
 (0 0 1) (1 10 1) (0 0 1) 
)
(
 (0 0 1) (1 10 1) (0 0 1) 
)
(
 (0 0 1) (1 10 1) (0 0 1) 
)
(
 (0 0 1) (1 10 1) (0 0 1) 
)
(
 (0 0 1) (1 10 1) (0 0 1) 
)
)
// block id 36 
hex (84 85 89 88 56 57 61 60)  (10 10 10) edgeGrading (
(
 (0 0 1) (1 10 1) (0 0 1) 
)
(
 (0 0 1) (1 10 1) (0 0 1) 
)
(
 (0 0 1) (1 10 1) (0 0 1) 
)
(
 (0 0 1) (1 10 1) (0 0 1) 
)
(
 (0 0 1) (1 10 1) (0 0 1) 
)
(
 (0 0 1) (1 10 1) (0 0 1) 
)
(
 (0 0 1) (1 10 1) (0 0 1) 
)
(
 (0 0 1) (1 10 1) (0 0 1) 
)
(
 (0 0 1) (1 10 1) (0 0 1) 
)
(
 (0 0 1) (1 10 1) (0 0 1) 
)
(
 (0 0 1) (1 10 1) (0 0 1) 
)
(
 (0 0 1) (1 10 1) (0 0 1) 
)
)
// block id 37 
hex (85 86 90 89 57 58 62 61)  (10 10 10) edgeGrading (
(
 (0 0 1) (1 10 1) (0 0 1) 
)
(
 (0 0 1) (1 10 1) (0 0 1) 
)
(
 (0 0 1) (1 10 1) (0 0 1) 
)
(
 (0 0 1) (1 10 1) (0 0 1) 
)
(
 (0 0 1) (1 10 1) (0 0 1) 
)
(
 (0 0 1) (1 10 1) (0 0 1) 
)
(
 (0 0 1) (1 10 1) (0 0 1) 
)
(
 (0 0 1) (1 10 1) (0 0 1) 
)
(
 (0 0 1) (1 10 1) (0 0 1) 
)
(
 (0 0 1) (1 10 1) (0 0 1) 
)
(
 (0 0 1) (1 10 1) (0 0 1) 
)
(
 (0 0 1) (1 10 1) (0 0 1) 
)
)
// block id 38 
hex (86 87 91 90 58 59 63 62)  (10 10 10) edgeGrading (
(
 (0 0 1) (1 10 1) (0 0 1) 
)
(
 (0 0 1) (1 10 1) (0 0 1) 
)
(
 (0 0 1) (1 10 1) (0 0 1) 
)
(
 (0 0 1) (1 10 1) (0 0 1) 
)
(
 (0 0 1) (1 10 1) (0 0 1) 
)
(
 (0 0 1) (1 10 1) (0 0 1) 
)
(
 (0 0 1) (1 10 1) (0 0 1) 
)
(
 (0 0 1) (1 10 1) (0 0 1) 
)
(
 (0 0 1) (1 10 1) (0 0 1) 
)
(
 (0 0 1) (1 10 1) (0 0 1) 
)
(
 (0 0 1) (1 10 1) (0 0 1) 
)
(
 (0 0 1) (1 10 1) (0 0 1) 
)
)
// block id 39 
hex (88 89 93 92 60 61 65 64)  (10 10 10) edgeGrading (
(
 (0 0 1) (1 10 1) (0 0 1) 
)
(
 (0 0 1) (1 10 1) (0 0 1) 
)
(
 (0 0 1) (1 10 1) (0 0 1) 
)
(
 (0 0 1) (1 10 1) (0 0 1) 
)
(
 (0 0 1) (1 10 1) (0 0 1) 
)
(
 (0 0 1) (1 10 1) (0 0 1) 
)
(
 (0 0 1) (1 10 1) (0 0 1) 
)
(
 (0 0 1) (1 10 1) (0 0 1) 
)
(
 (0 0 1) (1 10 1) (0 0 1) 
)
(
 (0 0 1) (1 10 1) (0 0 1) 
)
(
 (0 0 1) (1 10 1) (0 0 1) 
)
(
 (0 0 1) (1 10 1) (0 0 1) 
)
)
// block id 40 
hex (89 90 94 93 61 62 66 65)  (10 10 10) edgeGrading (
(
 (0 0 1) (1 10 1) (0 0 1) 
)
(
 (0 0 1) (1 10 1) (0 0 1) 
)
(
 (0 0 1) (1 10 1) (0 0 1) 
)
(
 (0 0 1) (1 10 1) (0 0 1) 
)
(
 (0 0 1) (1 10 1) (0 0 1) 
)
(
 (0 0 1) (1 10 1) (0 0 1) 
)
(
 (0 0 1) (1 10 1) (0 0 1) 
)
(
 (0 0 1) (1 10 1) (0 0 1) 
)
(
 (0 0 1) (1 10 1) (0 0 1) 
)
(
 (0 0 1) (1 10 1) (0 0 1) 
)
(
 (0 0 1) (1 10 1) (0 0 1) 
)
(
 (0 0 1) (1 10 1) (0 0 1) 
)
)
// block id 41 
hex (90 91 95 94 62 63 67 66)  (10 10 10) edgeGrading (
(
 (0 0 1) (1 10 1) (0 0 1) 
)
(
 (0 0 1) (1 10 1) (0 0 1) 
)
(
 (0 0 1) (1 10 1) (0 0 1) 
)
(
 (0 0 1) (1 10 1) (0 0 1) 
)
(
 (0 0 1) (1 10 1) (0 0 1) 
)
(
 (0 0 1) (1 10 1) (0 0 1) 
)
(
 (0 0 1) (1 10 1) (0 0 1) 
)
(
 (0 0 1) (1 10 1) (0 0 1) 
)
(
 (0 0 1) (1 10 1) (0 0 1) 
)
(
 (0 0 1) (1 10 1) (0 0 1) 
)
(
 (0 0 1) (1 10 1) (0 0 1) 
)
(
 (0 0 1) (1 10 1) (0 0 1) 
)
)
// block id 42 
hex (92 93 97 96 64 65 69 68)  (10 10 10) edgeGrading (
(
 (0 0 1) (1 10 1) (0 0 1) 
)
(
 (0 0 1) (1 10 1) (0 0 1) 
)
(
 (0 0 1) (1 10 1) (0 0 1) 
)
(
 (0 0 1) (1 10 1) (0 0 1) 
)
(
 (0 0 1) (1 10 1) (0 0 1) 
)
(
 (0 0 1) (1 10 1) (0 0 1) 
)
(
 (0 0 1) (1 10 1) (0 0 1) 
)
(
 (0 0 1) (1 10 1) (0 0 1) 
)
(
 (0 0 1) (1 10 1) (0 0 1) 
)
(
 (0 0 1) (1 10 1) (0 0 1) 
)
(
 (0 0 1) (1 10 1) (0 0 1) 
)
(
 (0 0 1) (1 10 1) (0 0 1) 
)
)
// block id 43 
hex (93 94 98 97 65 66 70 69)  (10 10 10) edgeGrading (
(
 (0 0 1) (1 10 1) (0 0 1) 
)
(
 (0 0 1) (1 10 1) (0 0 1) 
)
(
 (0 0 1) (1 10 1) (0 0 1) 
)
(
 (0 0 1) (1 10 1) (0 0 1) 
)
(
 (0 0 1) (1 10 1) (0 0 1) 
)
(
 (0 0 1) (1 10 1) (0 0 1) 
)
(
 (0 0 1) (1 10 1) (0 0 1) 
)
(
 (0 0 1) (1 10 1) (0 0 1) 
)
(
 (0 0 1) (1 10 1) (0 0 1) 
)
(
 (0 0 1) (1 10 1) (0 0 1) 
)
(
 (0 0 1) (1 10 1) (0 0 1) 
)
(
 (0 0 1) (1 10 1) (0 0 1) 
)
)
// block id 44 
hex (94 95 99 98 66 67 71 70)  (10 10 10) edgeGrading (
(
 (0 0 1) (1 10 1) (0 0 1) 
)
(
 (0 0 1) (1 10 1) (0 0 1) 
)
(
 (0 0 1) (1 10 1) (0 0 1) 
)
(
 (0 0 1) (1 10 1) (0 0 1) 
)
(
 (0 0 1) (1 10 1) (0 0 1) 
)
(
 (0 0 1) (1 10 1) (0 0 1) 
)
(
 (0 0 1) (1 10 1) (0 0 1) 
)
(
 (0 0 1) (1 10 1) (0 0 1) 
)
(
 (0 0 1) (1 10 1) (0 0 1) 
)
(
 (0 0 1) (1 10 1) (0 0 1) 
)
(
 (0 0 1) (1 10 1) (0 0 1) 
)
(
 (0 0 1) (1 10 1) (0 0 1) 
)
)
// block id 45 
hex (96 97 101 100 68 69 73 72)  (10 10 10) edgeGrading (
(
 (0 0 1) (1 10 1) (0 0 1) 
)
(
 (0 0 1) (1 10 1) (0 0 1) 
)
(
 (0 0 1) (1 10 1) (0 0 1) 
)
(
 (0 0 1) (1 10 1) (0 0 1) 
)
(
 (0 0 1) (1 10 1) (0 0 1) 
)
(
 (0 0 1) (1 10 1) (0 0 1) 
)
(
 (0 0 1) (1 10 1) (0 0 1) 
)
(
 (0 0 1) (1 10 1) (0 0 1) 
)
(
 (0 0 1) (1 10 1) (0 0 1) 
)
(
 (0 0 1) (1 10 1) (0 0 1) 
)
(
 (0 0 1) (1 10 1) (0 0 1) 
)
(
 (0 0 1) (1 10 1) (0 0 1) 
)
)
// block id 46 
hex (97 98 102 101 69 70 74 73)  (10 10 10) edgeGrading (
(
 (0 0 1) (1 10 1) (0 0 1) 
)
(
 (0 0 1) (1 10 1) (0 0 1) 
)
(
 (0 0 1) (1 10 1) (0 0 1) 
)
(
 (0 0 1) (1 10 1) (0 0 1) 
)
(
 (0 0 1) (1 10 1) (0 0 1) 
)
(
 (0 0 1) (1 10 1) (0 0 1) 
)
(
 (0 0 1) (1 10 1) (0 0 1) 
)
(
 (0 0 1) (1 10 1) (0 0 1) 
)
(
 (0 0 1) (1 10 1) (0 0 1) 
)
(
 (0 0 1) (1 10 1) (0 0 1) 
)
(
 (0 0 1) (1 10 1) (0 0 1) 
)
(
 (0 0 1) (1 10 1) (0 0 1) 
)
)
// block id 47 
hex (98 99 103 102 70 71 75 74)  (10 10 10) edgeGrading (
(
 (0 0 1) (1 10 1) (0 0 1) 
)
(
 (0 0 1) (1 10 1) (0 0 1) 
)
(
 (0 0 1) (1 10 1) (0 0 1) 
)
(
 (0 0 1) (1 10 1) (0 0 1) 
)
(
 (0 0 1) (1 10 1) (0 0 1) 
)
(
 (0 0 1) (1 10 1) (0 0 1) 
)
(
 (0 0 1) (1 10 1) (0 0 1) 
)
(
 (0 0 1) (1 10 1) (0 0 1) 
)
(
 (0 0 1) (1 10 1) (0 0 1) 
)
(