
/*--------------------------------*- C++ -*----------------------------------*/

// File was generated by SwiftBlock, a Blender 3D addon.

FoamFile
{
    version     2.0;
    format      ascii;
    class       dictionary;
    object      controlDict;
}
// * * * * * * * * * * * * * * * * * * * * * * * * * * * * * * * * * * * * * //

application     simpleFoam;

startFrom       startTime;
startTime       0;

stopAt          endTime;
endTime         2000;

deltaT          1;

writeControl    timeStep;
writeInterval   200;

purgeWrite      3;

functions
{
    includeFunc residuals;
}



// ************************************************************************* //

