
/*--------------------------------*- C++ -*----------------------------------*/

// File was generated by SwiftBlock, a Blender 3D addon.

FoamFile
{
    version     2.0;
    format      ascii;
    class       dictionary;
    object      controlDict;
}
// * * * * * * * * * * * * * * * * * * * * * * * * * * * * * * * * * * * * * //

application     pimpleFoam;

startFrom       latestTime;
startTime       0;
stopAt          endTime;
endTime         0.02;               // va bene per partire, poi estendi

deltaT          1e-7;               // iniziale molto piccolo
adjustTimeStep  yes;
maxCo           0.5;                // controlla il Courant
maxAlphaCo      0.5;
maxDeltaT       1e-4;               // non far aumentare troppo Δt

writeControl    timeStep;
writeInterval   1000;               // riduci I/O finché stabilizzi

// ************************************************************************* //

