/*--------------------------------*- C++ -*----------------------------------*/

FoamFile
{
    version     2.0;
    format      ascii;
    class       dictionary;
    object      fvSolution;
}
// * * * * * * * * * * * * * * * * * * * * * * * * * * * * * * * * * * * * * //

solvers
{
    p { solver GAMG; tolerance 1e-7; relTol 0.1; smoother GaussSeidel; nCellsInCoarsestLevel 500; agglomerator faceAreaPair; mergeLevels 1; }
    U { solver smoothSolver; smoother symGaussSeidel; tolerance 1e-6; relTol 0.1; }
    "(k|omega)" { solver smoothSolver; smoother symGaussSeidel; tolerance 1e-6; relTol 0.1; }
}
PIMPLE { nOuterCorrectors 3; nCorrectors 2; nNonOrthogonalCorrectors 1; }
relaxationFactors { fields { p 0.3; } equations { U 0.7; k 0.7; omega 0.7; } }
