/*--------------------------------*- C++ -*----------------------------------*/
FoamFile
{
    version     2.0;
    format      ascii;
    class       dictionary;
    object      fvSolution;
}
// * * * * * * * * * * * * * * * * * * * * * * * * * * * * * * * * * * * * * //

solvers
{
    p
    {
        solver GAMG;
        tolerance 1e-6;
        relTol 0.1;
        smoother DICGaussSeidel;
        nPreSweeps 0;
        nPostSweeps 2;
        cacheAgglomeration true;
        nCellsInCoarsestLevel 10;
        agglomerator faceAreaPair;
        mergeLevels 1;
        pRefCell 0;
        pRefValue 0;
    }

    U
    {
        solver smoothSolver;
        smoother symGaussSeidel;
        tolerance 1e-5;
        relTol 0.1;
    }
}

SIMPLE
{
    nNonOrthCorr     2;
    consistent        yes;
    residualControl
    {
        p               1e-4;
        U               1e-5;
    }
}

PIMPLE
{
    nOuterCorrectors 1;
    nCorrectors      2;
    nNonOrthogonalCorrectors 0;
    pRefCell 0;
    pRefValue 0;
}

relaxationFactors
{
    fields
    {
        p       0.3;
    }
    equations
    {
        U       0.7;
        k       0.6;
        omega   0.6;
    }
}
// ************************************************************************* //
